Clear 
Set DefaultBaseFrequency=50
New circuit.NRsema basekV=11.547 pu=1.03 angle=0 frequency=50 phases=3 Bus1=Bus_0

New linecode.AB nphases = 3 R1 = 0.224 X1 = 0.109


!FEEDER_1

New Line.Line_1 Phases=3 BaseFreq=50 Bus1=Bus_1009 Bus2=Bus_1 LineCode=AB Length=0.1  units=km
New Line.Line_2 Phases=3 BaseFreq=50 Bus1=Bus_1 Bus2=Bus_2 LineCode=AB Length=0.1  units=km
New Line.Line_3 Phases=3 BaseFreq=50 Bus1=Bus_2 Bus2=Bus_3 LineCode=AB Length=0.1  units=km
New Line.Line_4 Phases=3 BaseFreq=50 Bus1=Bus_3 Bus2=Bus_4 LineCode=AB Length=0.1  units=km
New Line.Line_5 Phases=3 BaseFreq=50 Bus1=Bus_4 Bus2=Bus_5 LineCode=AB Length=0.1  units=km
New Line.Line_6 Phases=3 BaseFreq=50 Bus1=Bus_5 Bus2=Bus_6 LineCode=AB Length=0.1  units=km
New Line.Line_7 Phases=3 BaseFreq=50 Bus1=Bus_6 Bus2=Bus_7 LineCode=AB Length=0.1  units=km
New Line.Line_8 Phases=3 BaseFreq=50 Bus1=Bus_7 Bus2=Bus_8 LineCode=AB Length=0.1  units=km
New Line.Line_9 Phases=3 BaseFreq=50 Bus1=Bus_8 Bus2=Bus_9 LineCode=AB Length=0.1  units=km
New Line.Line_10 Phases=3 BaseFreq=50 Bus1=Bus_9 Bus2=Bus_10 LineCode=AB Length=0.1  units=km
New Line.Line_11 Phases=3 BaseFreq=50 Bus1=Bus_10 Bus2=Bus_11 LineCode=AB Length=0.1  units=km
New Line.Line_12 Phases=3 BaseFreq=50 Bus1=Bus_11 Bus2=Bus_12 LineCode=AB Length=0.1  units=km
New Line.Line_13 Phases=3 BaseFreq=50 Bus1=Bus_12 Bus2=Bus_13 LineCode=AB Length=0.1  units=km
New Line.Line_14 Phases=3 BaseFreq=50 Bus1=Bus_13 Bus2=Bus_14 LineCode=AB Length=0.1  units=km
New Line.Line_15 Phases=3 BaseFreq=50 Bus1=Bus_14 Bus2=Bus_15 LineCode=AB Length=0.1  units=km
New Line.Line_16 Phases=3 BaseFreq=50 Bus1=Bus_15 Bus2=Bus_16 LineCode=AB Length=0.1  units=km
New Line.Line_17 Phases=3 BaseFreq=50 Bus1=Bus_16 Bus2=Bus_17 LineCode=AB Length=0.1  units=km
New Line.Line_18 Phases=3 BaseFreq=50 Bus1=Bus_17 Bus2=Bus_18 LineCode=AB Length=0.1  units=km
New Line.Line_19 Phases=3 BaseFreq=50 Bus1=Bus_18 Bus2=Bus_19 LineCode=AB Length=0.1  units=km
New Line.Line_20 Phases=3 BaseFreq=50 Bus1=Bus_19 Bus2=Bus_20 LineCode=AB Length=0.1  units=km
New Line.Line_21 Phases=3 BaseFreq=50 Bus1=Bus_20 Bus2=Bus_21 LineCode=AB Length=0.1  units=km
New Line.Line_22 Phases=3 BaseFreq=50 Bus1=Bus_21 Bus2=Bus_22 LineCode=AB Length=0.1  units=km
New Line.Line_23 Phases=3 BaseFreq=50 Bus1=Bus_22 Bus2=Bus_23 LineCode=AB Length=0.1  units=km
New Line.Line_24 Phases=3 BaseFreq=50 Bus1=Bus_23 Bus2=Bus_24 LineCode=AB Length=0.1  units=km
New Line.Line_25 Phases=3 BaseFreq=50 Bus1=Bus_24 Bus2=Bus_25 LineCode=AB Length=0.1  units=km
New Line.Line_26 Phases=3 BaseFreq=50 Bus1=Bus_25 Bus2=Bus_26 LineCode=AB Length=0.1  units=km
New Line.Line_27 Phases=3 BaseFreq=50 Bus1=Bus_26 Bus2=Bus_27 LineCode=AB Length=0.1  units=km
New Line.Line_28 Phases=3 BaseFreq=50 Bus1=Bus_27 Bus2=Bus_28 LineCode=AB Length=0.1  units=km
New Line.Line_29 Phases=3 BaseFreq=50 Bus1=Bus_28 Bus2=Bus_29 LineCode=AB Length=0.1  units=km
New Line.Line_30 Phases=3 BaseFreq=50 Bus1=Bus_29 Bus2=Bus_30 LineCode=AB Length=0.1  units=km
New Line.Line_31 Phases=3 BaseFreq=50 Bus1=Bus_30 Bus2=Bus_31 LineCode=AB Length=0.1  units=km
New Line.Line_32 Phases=3 BaseFreq=50 Bus1=Bus_31 Bus2=Bus_32 LineCode=AB Length=0.1  units=km
New Line.Line_33 Phases=3 BaseFreq=50 Bus1=Bus_32 Bus2=Bus_33 LineCode=AB Length=0.1  units=km
New Line.Line_34 Phases=3 BaseFreq=50 Bus1=Bus_33 Bus2=Bus_34 LineCode=AB Length=0.1  units=km
New Line.Line_35 Phases=3 BaseFreq=50 Bus1=Bus_34 Bus2=Bus_35 LineCode=AB Length=0.1  units=km
New Line.Line_36 Phases=3 BaseFreq=50 Bus1=Bus_35 Bus2=Bus_36 LineCode=AB Length=0.1  units=km
New Line.Line_37 Phases=3 BaseFreq=50 Bus1=Bus_36 Bus2=Bus_37 LineCode=AB Length=0.1  units=km
New Line.Line_38 Phases=3 BaseFreq=50 Bus1=Bus_37 Bus2=Bus_38 LineCode=AB Length=0.1  units=km
New Line.Line_39 Phases=3 BaseFreq=50 Bus1=Bus_38 Bus2=Bus_39 LineCode=AB Length=0.1  units=km
New Line.Line_40 Phases=3 BaseFreq=50 Bus1=Bus_39 Bus2=Bus_40 LineCode=AB Length=0.1  units=km
New Line.Line_41 Phases=3 BaseFreq=50 Bus1=Bus_40 Bus2=Bus_41 LineCode=AB Length=0.1  units=km
New Line.Line_42 Phases=3 BaseFreq=50 Bus1=Bus_41 Bus2=Bus_42 LineCode=AB Length=0.1  units=km
New Line.Line_43 Phases=3 BaseFreq=50 Bus1=Bus_42 Bus2=Bus_43 LineCode=AB Length=0.1  units=km
New Line.Line_44 Phases=3 BaseFreq=50 Bus1=Bus_43 Bus2=Bus_44 LineCode=AB Length=0.1  units=km
New Line.Line_45 Phases=3 BaseFreq=50 Bus1=Bus_44 Bus2=Bus_45 LineCode=AB Length=0.1  units=km
New Line.Line_46 Phases=3 BaseFreq=50 Bus1=Bus_45 Bus2=Bus_46 LineCode=AB Length=0.1  units=km
New Line.Line_47 Phases=3 BaseFreq=50 Bus1=Bus_46 Bus2=Bus_47 LineCode=AB Length=0.1  units=km
New Line.Line_48 Phases=3 BaseFreq=50 Bus1=Bus_47 Bus2=Bus_48 LineCode=AB Length=0.1  units=km
New Line.Line_49 Phases=3 BaseFreq=50 Bus1=Bus_48 Bus2=Bus_49 LineCode=AB Length=0.1  units=km
New Line.Line_50 Phases=3 BaseFreq=50 Bus1=Bus_1010 Bus2=Bus_50 LineCode=AB Length=0.1  units=km
New Line.Line_51 Phases=3 BaseFreq=50 Bus1=Bus_50 Bus2=Bus_51 LineCode=AB Length=0.1  units=km
New Line.Line_52 Phases=3 BaseFreq=50 Bus1=Bus_51 Bus2=Bus_52 LineCode=AB Length=0.1  units=km
New Line.Line_53 Phases=3 BaseFreq=50 Bus1=Bus_52 Bus2=Bus_53 LineCode=AB Length=0.1  units=km
New Line.Line_54 Phases=3 BaseFreq=50 Bus1=Bus_53 Bus2=Bus_54 LineCode=AB Length=0.1  units=km
New Line.Line_55 Phases=3 BaseFreq=50 Bus1=Bus_54 Bus2=Bus_55 LineCode=AB Length=0.1  units=km
New Line.Line_56 Phases=3 BaseFreq=50 Bus1=Bus_55 Bus2=Bus_56 LineCode=AB Length=0.1  units=km
New Line.Line_57 Phases=3 BaseFreq=50 Bus1=Bus_56 Bus2=Bus_57 LineCode=AB Length=0.1  units=km
New Line.Line_58 Phases=3 BaseFreq=50 Bus1=Bus_57 Bus2=Bus_58 LineCode=AB Length=0.1  units=km
New Line.Line_59 Phases=3 BaseFreq=50 Bus1=Bus_58 Bus2=Bus_59 LineCode=AB Length=0.1  units=km
New Line.Line_60 Phases=3 BaseFreq=50 Bus1=Bus_59 Bus2=Bus_60 LineCode=AB Length=0.1  units=km
New Line.Line_61 Phases=3 BaseFreq=50 Bus1=Bus_60 Bus2=Bus_61 LineCode=AB Length=0.1  units=km
New Line.Line_62 Phases=3 BaseFreq=50 Bus1=Bus_61 Bus2=Bus_62 LineCode=AB Length=0.1  units=km
New Line.Line_63 Phases=3 BaseFreq=50 Bus1=Bus_62 Bus2=Bus_63 LineCode=AB Length=0.1  units=km
New Line.Line_64 Phases=3 BaseFreq=50 Bus1=Bus_63 Bus2=Bus_64 LineCode=AB Length=0.1  units=km
New Line.Line_65 Phases=3 BaseFreq=50 Bus1=Bus_64 Bus2=Bus_65 LineCode=AB Length=0.1  units=km
New Line.Line_66 Phases=3 BaseFreq=50 Bus1=Bus_65 Bus2=Bus_66 LineCode=AB Length=0.1  units=km
New Line.Line_67 Phases=3 BaseFreq=50 Bus1=Bus_66 Bus2=Bus_67 LineCode=AB Length=0.1  units=km
New Line.Line_68 Phases=3 BaseFreq=50 Bus1=Bus_67 Bus2=Bus_68 LineCode=AB Length=0.1  units=km
New Line.Line_69 Phases=3 BaseFreq=50 Bus1=Bus_68 Bus2=Bus_69 LineCode=AB Length=0.1  units=km
New Line.Line_70 Phases=3 BaseFreq=50 Bus1=Bus_69 Bus2=Bus_70 LineCode=AB Length=0.1  units=km
New Line.Line_71 Phases=3 BaseFreq=50 Bus1=Bus_70 Bus2=Bus_71 LineCode=AB Length=0.1  units=km
New Line.Line_72 Phases=3 BaseFreq=50 Bus1=Bus_71 Bus2=Bus_72 LineCode=AB Length=0.1  units=km
New Line.Line_73 Phases=3 BaseFreq=50 Bus1=Bus_72 Bus2=Bus_73 LineCode=AB Length=0.1  units=km
New Line.Line_74 Phases=3 BaseFreq=50 Bus1=Bus_73 Bus2=Bus_74 LineCode=AB Length=0.1  units=km
New Line.Line_75 Phases=3 BaseFreq=50 Bus1=Bus_74 Bus2=Bus_75 LineCode=AB Length=0.1  units=km
New Line.Line_76 Phases=3 BaseFreq=50 Bus1=Bus_75 Bus2=Bus_76 LineCode=AB Length=0.1  units=km
New Line.Line_77 Phases=3 BaseFreq=50 Bus1=Bus_76 Bus2=Bus_77 LineCode=AB Length=0.1  units=km
New Line.Line_78 Phases=3 BaseFreq=50 Bus1=Bus_77 Bus2=Bus_78 LineCode=AB Length=0.1  units=km
New Line.Line_79 Phases=3 BaseFreq=50 Bus1=Bus_78 Bus2=Bus_79 LineCode=AB Length=0.1  units=km
New Line.Line_80 Phases=3 BaseFreq=50 Bus1=Bus_79 Bus2=Bus_80 LineCode=AB Length=0.1  units=km
New Line.Line_81 Phases=3 BaseFreq=50 Bus1=Bus_80 Bus2=Bus_81 LineCode=AB Length=0.1  units=km
New Line.Line_82 Phases=3 BaseFreq=50 Bus1=Bus_81 Bus2=Bus_82 LineCode=AB Length=0.1  units=km
New Line.Line_83 Phases=3 BaseFreq=50 Bus1=Bus_82 Bus2=Bus_83 LineCode=AB Length=0.1  units=km
New Line.Line_84 Phases=3 BaseFreq=50 Bus1=Bus_83 Bus2=Bus_84 LineCode=AB Length=0.1  units=km
New Line.Line_85 Phases=3 BaseFreq=50 Bus1=Bus_84 Bus2=Bus_85 LineCode=AB Length=0.1  units=km
New Line.Line_86 Phases=3 BaseFreq=50 Bus1=Bus_85 Bus2=Bus_86 LineCode=AB Length=0.1  units=km
New Line.Line_87 Phases=3 BaseFreq=50 Bus1=Bus_86 Bus2=Bus_87 LineCode=AB Length=0.1  units=km
New Line.Line_88 Phases=3 BaseFreq=50 Bus1=Bus_87 Bus2=Bus_88 LineCode=AB Length=0.1  units=km
New Line.Line_89 Phases=3 BaseFreq=50 Bus1=Bus_88 Bus2=Bus_89 LineCode=AB Length=0.1  units=km
New Line.Line_90 Phases=3 BaseFreq=50 Bus1=Bus_89 Bus2=Bus_90 LineCode=AB Length=0.1  units=km
New Line.Line_91 Phases=3 BaseFreq=50 Bus1=Bus_90 Bus2=Bus_91 LineCode=AB Length=0.1  units=km
New Line.Line_92 Phases=3 BaseFreq=50 Bus1=Bus_91 Bus2=Bus_92 LineCode=AB Length=0.1  units=km
New Line.Line_93 Phases=3 BaseFreq=50 Bus1=Bus_92 Bus2=Bus_93 LineCode=AB Length=0.1  units=km
New Line.Line_94 Phases=3 BaseFreq=50 Bus1=Bus_93 Bus2=Bus_94 LineCode=AB Length=0.1  units=km
New Line.Line_95 Phases=3 BaseFreq=50 Bus1=Bus_94 Bus2=Bus_95 LineCode=AB Length=0.1  units=km
New Line.Line_96 Phases=3 BaseFreq=50 Bus1=Bus_95 Bus2=Bus_96 LineCode=AB Length=0.1  units=km
New Line.Line_97 Phases=3 BaseFreq=50 Bus1=Bus_1011 Bus2=Bus_97 LineCode=AB Length=0.1  units=km
New Line.Line_98 Phases=3 BaseFreq=50 Bus1=Bus_97 Bus2=Bus_98 LineCode=AB Length=0.1  units=km
New Line.Line_99 Phases=3 BaseFreq=50 Bus1=Bus_98 Bus2=Bus_99 LineCode=AB Length=0.1  units=km
New Line.Line_100 Phases=3 BaseFreq=50 Bus1=Bus_99 Bus2=Bus_100 LineCode=AB Length=0.1  units=km
New Line.Line_101 Phases=3 BaseFreq=50 Bus1=Bus_100 Bus2=Bus_101 LineCode=AB Length=0.1  units=km
New Line.Line_102 Phases=3 BaseFreq=50 Bus1=Bus_101 Bus2=Bus_102 LineCode=AB Length=0.1  units=km
New Line.Line_103 Phases=3 BaseFreq=50 Bus1=Bus_102 Bus2=Bus_103 LineCode=AB Length=0.1  units=km
New Line.Line_104 Phases=3 BaseFreq=50 Bus1=Bus_103 Bus2=Bus_104 LineCode=AB Length=0.1  units=km
New Line.Line_105 Phases=3 BaseFreq=50 Bus1=Bus_104 Bus2=Bus_105 LineCode=AB Length=0.1  units=km
New Line.Line_106 Phases=3 BaseFreq=50 Bus1=Bus_105 Bus2=Bus_106 LineCode=AB Length=0.1  units=km
New Line.Line_107 Phases=3 BaseFreq=50 Bus1=Bus_106 Bus2=Bus_107 LineCode=AB Length=0.1  units=km
New Line.Line_108 Phases=3 BaseFreq=50 Bus1=Bus_107 Bus2=Bus_108 LineCode=AB Length=0.1  units=km
New Line.Line_109 Phases=3 BaseFreq=50 Bus1=Bus_108 Bus2=Bus_109 LineCode=AB Length=0.1  units=km
New Line.Line_110 Phases=3 BaseFreq=50 Bus1=Bus_109 Bus2=Bus_110 LineCode=AB Length=0.1  units=km
New Line.Line_111 Phases=3 BaseFreq=50 Bus1=Bus_110 Bus2=Bus_111 LineCode=AB Length=0.1  units=km
New Line.Line_112 Phases=3 BaseFreq=50 Bus1=Bus_111 Bus2=Bus_112 LineCode=AB Length=0.1  units=km
New Line.Line_113 Phases=3 BaseFreq=50 Bus1=Bus_112 Bus2=Bus_113 LineCode=AB Length=0.1  units=km
New Line.Line_114 Phases=3 BaseFreq=50 Bus1=Bus_113 Bus2=Bus_114 LineCode=AB Length=0.1  units=km
New Line.Line_115 Phases=3 BaseFreq=50 Bus1=Bus_114 Bus2=Bus_115 LineCode=AB Length=0.1  units=km
New Line.Line_116 Phases=3 BaseFreq=50 Bus1=Bus_115 Bus2=Bus_116 LineCode=AB Length=0.1  units=km
New Line.Line_117 Phases=3 BaseFreq=50 Bus1=Bus_116 Bus2=Bus_117 LineCode=AB Length=0.1  units=km
New Line.Line_118 Phases=3 BaseFreq=50 Bus1=Bus_117 Bus2=Bus_118 LineCode=AB Length=0.1  units=km
New Line.Line_119 Phases=3 BaseFreq=50 Bus1=Bus_118 Bus2=Bus_119 LineCode=AB Length=0.1  units=km
New Line.Line_120 Phases=3 BaseFreq=50 Bus1=Bus_119 Bus2=Bus_120 LineCode=AB Length=0.1  units=km
New Line.Line_121 Phases=3 BaseFreq=50 Bus1=Bus_120 Bus2=Bus_121 LineCode=AB Length=0.1  units=km
New Line.Line_122 Phases=3 BaseFreq=50 Bus1=Bus_121 Bus2=Bus_122 LineCode=AB Length=0.1  units=km
New Line.Line_123 Phases=3 BaseFreq=50 Bus1=Bus_122 Bus2=Bus_123 LineCode=AB Length=0.1  units=km
New Line.Line_124 Phases=3 BaseFreq=50 Bus1=Bus_123 Bus2=Bus_124 LineCode=AB Length=0.1  units=km
New Line.Line_125 Phases=3 BaseFreq=50 Bus1=Bus_124 Bus2=Bus_125 LineCode=AB Length=0.1  units=km
New Line.Line_126 Phases=3 BaseFreq=50 Bus1=Bus_125 Bus2=Bus_126 LineCode=AB Length=0.1  units=km
New Line.Line_127 Phases=3 BaseFreq=50 Bus1=Bus_126 Bus2=Bus_127 LineCode=AB Length=0.1  units=km
New Line.Line_128 Phases=3 BaseFreq=50 Bus1=Bus_127 Bus2=Bus_128 LineCode=AB Length=0.1  units=km
New Line.Line_129 Phases=3 BaseFreq=50 Bus1=Bus_128 Bus2=Bus_129 LineCode=AB Length=0.1  units=km
New Line.Line_130 Phases=3 BaseFreq=50 Bus1=Bus_129 Bus2=Bus_130 LineCode=AB Length=0.1  units=km
New Line.Line_131 Phases=3 BaseFreq=50 Bus1=Bus_130 Bus2=Bus_131 LineCode=AB Length=0.1  units=km
New Line.Line_132 Phases=3 BaseFreq=50 Bus1=Bus_131 Bus2=Bus_132 LineCode=AB Length=0.1  units=km
New Line.Line_133 Phases=3 BaseFreq=50 Bus1=Bus_132 Bus2=Bus_133 LineCode=AB Length=0.1  units=km
New Line.Line_134 Phases=3 BaseFreq=50 Bus1=Bus_133 Bus2=Bus_134 LineCode=AB Length=0.1  units=km
New Line.Line_135 Phases=3 BaseFreq=50 Bus1=Bus_134 Bus2=Bus_135 LineCode=AB Length=0.1  units=km
New Line.Line_136 Phases=3 BaseFreq=50 Bus1=Bus_135 Bus2=Bus_136 LineCode=AB Length=0.1  units=km
New Line.Line_137 Phases=3 BaseFreq=50 Bus1=Bus_136 Bus2=Bus_137 LineCode=AB Length=0.1  units=km
New Line.Line_138 Phases=3 BaseFreq=50 Bus1=Bus_137 Bus2=Bus_138 LineCode=AB Length=0.1  units=km
New Line.Line_139 Phases=3 BaseFreq=50 Bus1=Bus_138 Bus2=Bus_139 LineCode=AB Length=0.1  units=km
New Line.Line_140 Phases=3 BaseFreq=50 Bus1=Bus_139 Bus2=Bus_140 LineCode=AB Length=0.1  units=km
New Line.Line_141 Phases=3 BaseFreq=50 Bus1=Bus_140 Bus2=Bus_141 LineCode=AB Length=0.1  units=km
New Line.Line_142 Phases=3 BaseFreq=50 Bus1=Bus_141 Bus2=Bus_142 LineCode=AB Length=0.1  units=km
New Line.Line_143 Phases=3 BaseFreq=50 Bus1=Bus_142 Bus2=Bus_143 LineCode=AB Length=0.1  units=km
New Line.Line_144 Phases=3 BaseFreq=50 Bus1=Bus_1012 Bus2=Bus_144 LineCode=AB Length=0.1  units=km
New Line.Line_145 Phases=3 BaseFreq=50 Bus1=Bus_144 Bus2=Bus_145 LineCode=AB Length=0.1  units=km
New Line.Line_146 Phases=3 BaseFreq=50 Bus1=Bus_145 Bus2=Bus_146 LineCode=AB Length=0.1  units=km
New Line.Line_147 Phases=3 BaseFreq=50 Bus1=Bus_146 Bus2=Bus_147 LineCode=AB Length=0.1  units=km
New Line.Line_148 Phases=3 BaseFreq=50 Bus1=Bus_147 Bus2=Bus_148 LineCode=AB Length=0.1  units=km
New Line.Line_149 Phases=3 BaseFreq=50 Bus1=Bus_148 Bus2=Bus_149 LineCode=AB Length=0.1  units=km
New Line.Line_150 Phases=3 BaseFreq=50 Bus1=Bus_149 Bus2=Bus_150 LineCode=AB Length=0.1  units=km
New Line.Line_151 Phases=3 BaseFreq=50 Bus1=Bus_150 Bus2=Bus_151 LineCode=AB Length=0.1  units=km
New Line.Line_152 Phases=3 BaseFreq=50 Bus1=Bus_151 Bus2=Bus_152 LineCode=AB Length=0.1  units=km
New Line.Line_153 Phases=3 BaseFreq=50 Bus1=Bus_152 Bus2=Bus_153 LineCode=AB Length=0.1  units=km
New Line.Line_154 Phases=3 BaseFreq=50 Bus1=Bus_153 Bus2=Bus_154 LineCode=AB Length=0.1  units=km
New Line.Line_155 Phases=3 BaseFreq=50 Bus1=Bus_154 Bus2=Bus_155 LineCode=AB Length=0.1  units=km
New Line.Line_156 Phases=3 BaseFreq=50 Bus1=Bus_155 Bus2=Bus_156 LineCode=AB Length=0.1  units=km
New Line.Line_157 Phases=3 BaseFreq=50 Bus1=Bus_156 Bus2=Bus_157 LineCode=AB Length=0.1  units=km
New Line.Line_158 Phases=3 BaseFreq=50 Bus1=Bus_157 Bus2=Bus_158 LineCode=AB Length=0.1  units=km
New Line.Line_159 Phases=3 BaseFreq=50 Bus1=Bus_158 Bus2=Bus_159 LineCode=AB Length=0.1  units=km
New Line.Line_160 Phases=3 BaseFreq=50 Bus1=Bus_159 Bus2=Bus_160 LineCode=AB Length=0.1  units=km
New Line.Line_161 Phases=3 BaseFreq=50 Bus1=Bus_160 Bus2=Bus_161 LineCode=AB Length=0.1  units=km
New Line.Line_162 Phases=3 BaseFreq=50 Bus1=Bus_161 Bus2=Bus_162 LineCode=AB Length=0.1  units=km
New Line.Line_163 Phases=3 BaseFreq=50 Bus1=Bus_162 Bus2=Bus_163 LineCode=AB Length=0.1  units=km
New Line.Line_164 Phases=3 BaseFreq=50 Bus1=Bus_163 Bus2=Bus_164 LineCode=AB Length=0.1  units=km
New Line.Line_165 Phases=3 BaseFreq=50 Bus1=Bus_164 Bus2=Bus_165 LineCode=AB Length=0.1  units=km
New Line.Line_166 Phases=3 BaseFreq=50 Bus1=Bus_165 Bus2=Bus_166 LineCode=AB Length=0.1  units=km
New Line.Line_167 Phases=3 BaseFreq=50 Bus1=Bus_166 Bus2=Bus_167 LineCode=AB Length=0.1  units=km
New Line.Line_168 Phases=3 BaseFreq=50 Bus1=Bus_167 Bus2=Bus_168 LineCode=AB Length=0.1  units=km
New Line.Line_169 Phases=3 BaseFreq=50 Bus1=Bus_168 Bus2=Bus_169 LineCode=AB Length=0.1  units=km
New Line.Line_170 Phases=3 BaseFreq=50 Bus1=Bus_169 Bus2=Bus_170 LineCode=AB Length=0.1  units=km
New Line.Line_171 Phases=3 BaseFreq=50 Bus1=Bus_170 Bus2=Bus_171 LineCode=AB Length=0.1  units=km
New Line.Line_172 Phases=3 BaseFreq=50 Bus1=Bus_171 Bus2=Bus_172 LineCode=AB Length=0.1  units=km
New Line.Line_173 Phases=3 BaseFreq=50 Bus1=Bus_172 Bus2=Bus_173 LineCode=AB Length=0.1  units=km
New Line.Line_174 Phases=3 BaseFreq=50 Bus1=Bus_173 Bus2=Bus_174 LineCode=AB Length=0.1  units=km
New Line.Line_175 Phases=3 BaseFreq=50 Bus1=Bus_174 Bus2=Bus_175 LineCode=AB Length=0.1  units=km
New Line.Line_176 Phases=3 BaseFreq=50 Bus1=Bus_175 Bus2=Bus_176 LineCode=AB Length=0.1  units=km
New Line.Line_177 Phases=3 BaseFreq=50 Bus1=Bus_176 Bus2=Bus_177 LineCode=AB Length=0.1  units=km
New Line.Line_178 Phases=3 BaseFreq=50 Bus1=Bus_177 Bus2=Bus_178 LineCode=AB Length=0.1  units=km
New Line.Line_179 Phases=3 BaseFreq=50 Bus1=Bus_178 Bus2=Bus_179 LineCode=AB Length=0.1  units=km
New Line.Line_180 Phases=3 BaseFreq=50 Bus1=Bus_179 Bus2=Bus_180 LineCode=AB Length=0.1  units=km
New Line.Line_181 Phases=3 BaseFreq=50 Bus1=Bus_180 Bus2=Bus_181 LineCode=AB Length=0.1  units=km
New Line.Line_182 Phases=3 BaseFreq=50 Bus1=Bus_181 Bus2=Bus_182 LineCode=AB Length=0.1  units=km
New Line.Line_183 Phases=3 BaseFreq=50 Bus1=Bus_182 Bus2=Bus_183 LineCode=AB Length=0.1  units=km
New Line.Line_184 Phases=3 BaseFreq=50 Bus1=Bus_183 Bus2=Bus_184 LineCode=AB Length=0.1  units=km
New Line.Line_185 Phases=3 BaseFreq=50 Bus1=Bus_184 Bus2=Bus_185 LineCode=AB Length=0.1  units=km
New Line.Line_186 Phases=3 BaseFreq=50 Bus1=Bus_185 Bus2=Bus_186 LineCode=AB Length=0.1  units=km
New Line.Line_187 Phases=3 BaseFreq=50 Bus1=Bus_186 Bus2=Bus_187 LineCode=AB Length=0.1  units=km
New Line.Line_188 Phases=3 BaseFreq=50 Bus1=Bus_187 Bus2=Bus_188 LineCode=AB Length=0.1  units=km
New Line.Line_189 Phases=3 BaseFreq=50 Bus1=Bus_188 Bus2=Bus_189 LineCode=AB Length=0.1  units=km
New Line.Line_190 Phases=3 BaseFreq=50 Bus1=Bus_189 Bus2=Bus_190 LineCode=AB Length=0.1  units=km
New Line.Line_191 Phases=3 BaseFreq=50 Bus1=Bus_1013 Bus2=Bus_191 LineCode=AB Length=0.1  units=km
New Line.Line_192 Phases=3 BaseFreq=50 Bus1=Bus_191 Bus2=Bus_192 LineCode=AB Length=0.1  units=km
New Line.Line_193 Phases=3 BaseFreq=50 Bus1=Bus_192 Bus2=Bus_193 LineCode=AB Length=0.1  units=km
New Line.Line_194 Phases=3 BaseFreq=50 Bus1=Bus_193 Bus2=Bus_194 LineCode=AB Length=0.1  units=km
New Line.Line_195 Phases=3 BaseFreq=50 Bus1=Bus_194 Bus2=Bus_195 LineCode=AB Length=0.1  units=km
New Line.Line_196 Phases=3 BaseFreq=50 Bus1=Bus_195 Bus2=Bus_196 LineCode=AB Length=0.1  units=km
New Line.Line_197 Phases=3 BaseFreq=50 Bus1=Bus_196 Bus2=Bus_197 LineCode=AB Length=0.1  units=km
New Line.Line_198 Phases=3 BaseFreq=50 Bus1=Bus_197 Bus2=Bus_198 LineCode=AB Length=0.1  units=km
New Line.Line_199 Phases=3 BaseFreq=50 Bus1=Bus_198 Bus2=Bus_199 LineCode=AB Length=0.1  units=km
New Line.Line_200 Phases=3 BaseFreq=50 Bus1=Bus_199 Bus2=Bus_200 LineCode=AB Length=0.1  units=km
New Line.Line_201 Phases=3 BaseFreq=50 Bus1=Bus_200 Bus2=Bus_201 LineCode=AB Length=0.1  units=km
New Line.Line_202 Phases=3 BaseFreq=50 Bus1=Bus_201 Bus2=Bus_202 LineCode=AB Length=0.1  units=km
New Line.Line_203 Phases=3 BaseFreq=50 Bus1=Bus_202 Bus2=Bus_203 LineCode=AB Length=0.1  units=km
New Line.Line_204 Phases=3 BaseFreq=50 Bus1=Bus_203 Bus2=Bus_204 LineCode=AB Length=0.1  units=km
New Line.Line_205 Phases=3 BaseFreq=50 Bus1=Bus_204 Bus2=Bus_205 LineCode=AB Length=0.1  units=km
New Line.Line_206 Phases=3 BaseFreq=50 Bus1=Bus_205 Bus2=Bus_206 LineCode=AB Length=0.1  units=km
New Line.Line_207 Phases=3 BaseFreq=50 Bus1=Bus_206 Bus2=Bus_207 LineCode=AB Length=0.1  units=km
New Line.Line_208 Phases=3 BaseFreq=50 Bus1=Bus_207 Bus2=Bus_208 LineCode=AB Length=0.1  units=km
New Line.Line_209 Phases=3 BaseFreq=50 Bus1=Bus_208 Bus2=Bus_209 LineCode=AB Length=0.1  units=km
New Line.Line_210 Phases=3 BaseFreq=50 Bus1=Bus_209 Bus2=Bus_210 LineCode=AB Length=0.1  units=km
New Line.Line_211 Phases=3 BaseFreq=50 Bus1=Bus_210 Bus2=Bus_211 LineCode=AB Length=0.1  units=km
New Line.Line_212 Phases=3 BaseFreq=50 Bus1=Bus_211 Bus2=Bus_212 LineCode=AB Length=0.1  units=km
New Line.Line_213 Phases=3 BaseFreq=50 Bus1=Bus_212 Bus2=Bus_213 LineCode=AB Length=0.1  units=km
New Line.Line_214 Phases=3 BaseFreq=50 Bus1=Bus_213 Bus2=Bus_214 LineCode=AB Length=0.1  units=km
New Line.Line_215 Phases=3 BaseFreq=50 Bus1=Bus_214 Bus2=Bus_215 LineCode=AB Length=0.1  units=km
New Line.Line_216 Phases=3 BaseFreq=50 Bus1=Bus_215 Bus2=Bus_216 LineCode=AB Length=0.1  units=km
New Line.Line_217 Phases=3 BaseFreq=50 Bus1=Bus_216 Bus2=Bus_217 LineCode=AB Length=0.1  units=km
New Line.Line_218 Phases=3 BaseFreq=50 Bus1=Bus_217 Bus2=Bus_218 LineCode=AB Length=0.1  units=km
New Line.Line_219 Phases=3 BaseFreq=50 Bus1=Bus_218 Bus2=Bus_219 LineCode=AB Length=0.1  units=km
New Line.Line_220 Phases=3 BaseFreq=50 Bus1=Bus_219 Bus2=Bus_220 LineCode=AB Length=0.1  units=km
New Line.Line_221 Phases=3 BaseFreq=50 Bus1=Bus_220 Bus2=Bus_221 LineCode=AB Length=0.1  units=km
New Line.Line_222 Phases=3 BaseFreq=50 Bus1=Bus_221 Bus2=Bus_222 LineCode=AB Length=0.1  units=km
New Line.Line_223 Phases=3 BaseFreq=50 Bus1=Bus_222 Bus2=Bus_223 LineCode=AB Length=0.1  units=km
New Line.Line_224 Phases=3 BaseFreq=50 Bus1=Bus_223 Bus2=Bus_224 LineCode=AB Length=0.1  units=km
New Line.Line_225 Phases=3 BaseFreq=50 Bus1=Bus_224 Bus2=Bus_225 LineCode=AB Length=0.1  units=km
New Line.Line_226 Phases=3 BaseFreq=50 Bus1=Bus_225 Bus2=Bus_226 LineCode=AB Length=0.1  units=km
New Line.Line_227 Phases=3 BaseFreq=50 Bus1=Bus_226 Bus2=Bus_227 LineCode=AB Length=0.1  units=km
New Line.Line_228 Phases=3 BaseFreq=50 Bus1=Bus_227 Bus2=Bus_228 LineCode=AB Length=0.1  units=km
New Line.Line_229 Phases=3 BaseFreq=50 Bus1=Bus_228 Bus2=Bus_229 LineCode=AB Length=0.1  units=km
New Line.Line_230 Phases=3 BaseFreq=50 Bus1=Bus_229 Bus2=Bus_230 LineCode=AB Length=0.1  units=km
New Line.Line_231 Phases=3 BaseFreq=50 Bus1=Bus_230 Bus2=Bus_231 LineCode=AB Length=0.1  units=km
New Line.Line_232 Phases=3 BaseFreq=50 Bus1=Bus_231 Bus2=Bus_232 LineCode=AB Length=0.1  units=km
New Line.Line_233 Phases=3 BaseFreq=50 Bus1=Bus_232 Bus2=Bus_233 LineCode=AB Length=0.1  units=km
New Line.Line_234 Phases=3 BaseFreq=50 Bus1=Bus_233 Bus2=Bus_234 LineCode=AB Length=0.1  units=km
New Line.Line_235 Phases=3 BaseFreq=50 Bus1=Bus_234 Bus2=Bus_235 LineCode=AB Length=0.1  units=km
New Line.Line_236 Phases=3 BaseFreq=50 Bus1=Bus_235 Bus2=Bus_236 LineCode=AB Length=0.1  units=km
New Line.Line_237 Phases=3 BaseFreq=50 Bus1=Bus_236 Bus2=Bus_237 LineCode=AB Length=0.1  units=km
New Line.Line_238 Phases=3 BaseFreq=50 Bus1=Bus_1014 Bus2=Bus_238 LineCode=AB Length=0.1  units=km
New Line.Line_239 Phases=3 BaseFreq=50 Bus1=Bus_238 Bus2=Bus_239 LineCode=AB Length=0.1  units=km
New Line.Line_240 Phases=3 BaseFreq=50 Bus1=Bus_239 Bus2=Bus_240 LineCode=AB Length=0.1  units=km
New Line.Line_241 Phases=3 BaseFreq=50 Bus1=Bus_240 Bus2=Bus_241 LineCode=AB Length=0.1  units=km
New Line.Line_242 Phases=3 BaseFreq=50 Bus1=Bus_241 Bus2=Bus_242 LineCode=AB Length=0.1  units=km
New Line.Line_243 Phases=3 BaseFreq=50 Bus1=Bus_242 Bus2=Bus_243 LineCode=AB Length=0.1  units=km
New Line.Line_244 Phases=3 BaseFreq=50 Bus1=Bus_243 Bus2=Bus_244 LineCode=AB Length=0.1  units=km
New Line.Line_245 Phases=3 BaseFreq=50 Bus1=Bus_244 Bus2=Bus_245 LineCode=AB Length=0.1  units=km
New Line.Line_246 Phases=3 BaseFreq=50 Bus1=Bus_245 Bus2=Bus_246 LineCode=AB Length=0.1  units=km
New Line.Line_247 Phases=3 BaseFreq=50 Bus1=Bus_246 Bus2=Bus_247 LineCode=AB Length=0.1  units=km
New Line.Line_248 Phases=3 BaseFreq=50 Bus1=Bus_247 Bus2=Bus_248 LineCode=AB Length=0.1  units=km
New Line.Line_249 Phases=3 BaseFreq=50 Bus1=Bus_248 Bus2=Bus_249 LineCode=AB Length=0.1  units=km
New Line.Line_250 Phases=3 BaseFreq=50 Bus1=Bus_249 Bus2=Bus_250 LineCode=AB Length=0.1  units=km
New Line.Line_251 Phases=3 BaseFreq=50 Bus1=Bus_250 Bus2=Bus_251 LineCode=AB Length=0.1  units=km
New Line.Line_252 Phases=3 BaseFreq=50 Bus1=Bus_251 Bus2=Bus_252 LineCode=AB Length=0.1  units=km


!FEEDER_2

New Line.Line_253 Phases=3 BaseFreq=50 Bus1=Bus_1015 Bus2=Bus_253 LineCode=AB Length=0.1  units=km
New Line.Line_254 Phases=3 BaseFreq=50 Bus1=Bus_253 Bus2=Bus_254 LineCode=AB Length=0.1  units=km
New Line.Line_255 Phases=3 BaseFreq=50 Bus1=Bus_254 Bus2=Bus_255 LineCode=AB Length=0.1  units=km
New Line.Line_256 Phases=3 BaseFreq=50 Bus1=Bus_255 Bus2=Bus_256 LineCode=AB Length=0.1  units=km
New Line.Line_257 Phases=3 BaseFreq=50 Bus1=Bus_256 Bus2=Bus_257 LineCode=AB Length=0.1  units=km
New Line.Line_258 Phases=3 BaseFreq=50 Bus1=Bus_257 Bus2=Bus_258 LineCode=AB Length=0.1  units=km
New Line.Line_259 Phases=3 BaseFreq=50 Bus1=Bus_258 Bus2=Bus_259 LineCode=AB Length=0.1  units=km
New Line.Line_260 Phases=3 BaseFreq=50 Bus1=Bus_259 Bus2=Bus_260 LineCode=AB Length=0.1  units=km
New Line.Line_261 Phases=3 BaseFreq=50 Bus1=Bus_260 Bus2=Bus_261 LineCode=AB Length=0.1  units=km
New Line.Line_262 Phases=3 BaseFreq=50 Bus1=Bus_261 Bus2=Bus_262 LineCode=AB Length=0.1  units=km
New Line.Line_263 Phases=3 BaseFreq=50 Bus1=Bus_262 Bus2=Bus_263 LineCode=AB Length=0.1  units=km
New Line.Line_264 Phases=3 BaseFreq=50 Bus1=Bus_263 Bus2=Bus_264 LineCode=AB Length=0.1  units=km
New Line.Line_265 Phases=3 BaseFreq=50 Bus1=Bus_264 Bus2=Bus_265 LineCode=AB Length=0.1  units=km
New Line.Line_266 Phases=3 BaseFreq=50 Bus1=Bus_265 Bus2=Bus_266 LineCode=AB Length=0.1  units=km
New Line.Line_267 Phases=3 BaseFreq=50 Bus1=Bus_266 Bus2=Bus_267 LineCode=AB Length=0.1  units=km
New Line.Line_268 Phases=3 BaseFreq=50 Bus1=Bus_267 Bus2=Bus_268 LineCode=AB Length=0.1  units=km
New Line.Line_269 Phases=3 BaseFreq=50 Bus1=Bus_268 Bus2=Bus_269 LineCode=AB Length=0.1  units=km
New Line.Line_270 Phases=3 BaseFreq=50 Bus1=Bus_269 Bus2=Bus_270 LineCode=AB Length=0.1  units=km
New Line.Line_271 Phases=3 BaseFreq=50 Bus1=Bus_270 Bus2=Bus_271 LineCode=AB Length=0.1  units=km
New Line.Line_272 Phases=3 BaseFreq=50 Bus1=Bus_271 Bus2=Bus_272 LineCode=AB Length=0.1  units=km
New Line.Line_273 Phases=3 BaseFreq=50 Bus1=Bus_272 Bus2=Bus_273 LineCode=AB Length=0.1  units=km
New Line.Line_274 Phases=3 BaseFreq=50 Bus1=Bus_273 Bus2=Bus_274 LineCode=AB Length=0.1  units=km
New Line.Line_275 Phases=3 BaseFreq=50 Bus1=Bus_274 Bus2=Bus_275 LineCode=AB Length=0.1  units=km
New Line.Line_276 Phases=3 BaseFreq=50 Bus1=Bus_275 Bus2=Bus_276 LineCode=AB Length=0.1  units=km
New Line.Line_277 Phases=3 BaseFreq=50 Bus1=Bus_276 Bus2=Bus_277 LineCode=AB Length=0.1  units=km
New Line.Line_278 Phases=3 BaseFreq=50 Bus1=Bus_277 Bus2=Bus_278 LineCode=AB Length=0.1  units=km
New Line.Line_279 Phases=3 BaseFreq=50 Bus1=Bus_278 Bus2=Bus_279 LineCode=AB Length=0.1  units=km
New Line.Line_280 Phases=3 BaseFreq=50 Bus1=Bus_279 Bus2=Bus_280 LineCode=AB Length=0.1  units=km
New Line.Line_281 Phases=3 BaseFreq=50 Bus1=Bus_280 Bus2=Bus_281 LineCode=AB Length=0.1  units=km
New Line.Line_282 Phases=3 BaseFreq=50 Bus1=Bus_281 Bus2=Bus_282 LineCode=AB Length=0.1  units=km
New Line.Line_283 Phases=3 BaseFreq=50 Bus1=Bus_282 Bus2=Bus_283 LineCode=AB Length=0.1  units=km
New Line.Line_284 Phases=3 BaseFreq=50 Bus1=Bus_283 Bus2=Bus_284 LineCode=AB Length=0.1  units=km
New Line.Line_285 Phases=3 BaseFreq=50 Bus1=Bus_284 Bus2=Bus_285 LineCode=AB Length=0.1  units=km
New Line.Line_286 Phases=3 BaseFreq=50 Bus1=Bus_285 Bus2=Bus_286 LineCode=AB Length=0.1  units=km
New Line.Line_287 Phases=3 BaseFreq=50 Bus1=Bus_286 Bus2=Bus_287 LineCode=AB Length=0.1  units=km
New Line.Line_288 Phases=3 BaseFreq=50 Bus1=Bus_287 Bus2=Bus_288 LineCode=AB Length=0.1  units=km
New Line.Line_289 Phases=3 BaseFreq=50 Bus1=Bus_288 Bus2=Bus_289 LineCode=AB Length=0.1  units=km
New Line.Line_290 Phases=3 BaseFreq=50 Bus1=Bus_289 Bus2=Bus_290 LineCode=AB Length=0.1  units=km
New Line.Line_291 Phases=3 BaseFreq=50 Bus1=Bus_290 Bus2=Bus_291 LineCode=AB Length=0.1  units=km
New Line.Line_292 Phases=3 BaseFreq=50 Bus1=Bus_291 Bus2=Bus_292 LineCode=AB Length=0.1  units=km
New Line.Line_293 Phases=3 BaseFreq=50 Bus1=Bus_292 Bus2=Bus_293 LineCode=AB Length=0.1  units=km
New Line.Line_294 Phases=3 BaseFreq=50 Bus1=Bus_293 Bus2=Bus_294 LineCode=AB Length=0.1  units=km
New Line.Line_295 Phases=3 BaseFreq=50 Bus1=Bus_294 Bus2=Bus_295 LineCode=AB Length=0.1  units=km
New Line.Line_296 Phases=3 BaseFreq=50 Bus1=Bus_295 Bus2=Bus_296 LineCode=AB Length=0.1  units=km
New Line.Line_297 Phases=3 BaseFreq=50 Bus1=Bus_296 Bus2=Bus_297 LineCode=AB Length=0.1  units=km
New Line.Line_298 Phases=3 BaseFreq=50 Bus1=Bus_297 Bus2=Bus_298 LineCode=AB Length=0.1  units=km
New Line.Line_299 Phases=3 BaseFreq=50 Bus1=Bus_298 Bus2=Bus_299 LineCode=AB Length=0.1  units=km
New Line.Line_300 Phases=3 BaseFreq=50 Bus1=Bus_299 Bus2=Bus_300 LineCode=AB Length=0.1  units=km
New Line.Line_301 Phases=3 BaseFreq=50 Bus1=Bus_300 Bus2=Bus_301 LineCode=AB Length=0.1  units=km
New Line.Line_302 Phases=3 BaseFreq=50 Bus1=Bus_1016 Bus2=Bus_302 LineCode=AB Length=0.1  units=km
New Line.Line_303 Phases=3 BaseFreq=50 Bus1=Bus_302 Bus2=Bus_303 LineCode=AB Length=0.1  units=km
New Line.Line_304 Phases=3 BaseFreq=50 Bus1=Bus_303 Bus2=Bus_304 LineCode=AB Length=0.1  units=km
New Line.Line_305 Phases=3 BaseFreq=50 Bus1=Bus_304 Bus2=Bus_305 LineCode=AB Length=0.1  units=km
New Line.Line_306 Phases=3 BaseFreq=50 Bus1=Bus_305 Bus2=Bus_306 LineCode=AB Length=0.1  units=km
New Line.Line_307 Phases=3 BaseFreq=50 Bus1=Bus_306 Bus2=Bus_307 LineCode=AB Length=0.1  units=km